! Cap. 3 - cabo simples sob forte tracao, L = 32 m
! Gerado por casos_2d.py: A = (0, 10), B = (30, 20), trechos (L, q) = [(32, 45)], forcas (fracao do arco, P) = []
! Resultado final gravado em caso.txt (nos e forca axial dos elementos)
/CLEAR,NOSTART
/FILNAME,cabo2d,1
/TITLE,Cabo 2D - casos_2d.py
/PREP7
ET,1,BEAM188
MP,EX,1,2.0E11
MP,PRXY,1,0.3
rsec=0.01
fI=0.01
Asec=3.14159265359*rsec**2
Isec=fI*3.14159265359*rsec**4/4
SECTYPE,1,BEAM,ASEC
SECDATA,Asec,Isec,0,Isec,0,2*Isec
N,1,0.0000000000,10.0000000000,0
N,2,0.7992490852,10.0344599596,0
N,3,1.5978521703,10.0815743574,0
N,4,2.3956115679,10.1412960610,0
N,5,3.1923323088,10.2135657130,0
N,6,3.9878227393,10.2983120278,0
N,7,4.7818950859,10.3954521854,0
N,8,5.5743659829,10.5048922813,0
N,9,6.3650569689,10.6265277714,0
N,10,7.1537949333,10.7602440254,0
N,11,7.9404125202,10.9059168896,0
N,12,8.7247484907,11.0634132624,0
N,13,9.5066480306,11.2325917280,0
N,14,10.2859630127,11.4133031926,0
N,15,11.0625522157,11.6053915174,0
N,16,11.8362814840,11.8086942010,0
N,17,12.6070238578,12.0230430009,0
N,18,13.3746596455,12.2482646044,0
N,19,14.1390764598,12.4841812617,0
N,20,14.9001692083,12.7306114310,0
! ... 21 like lines cut
TYPE,1
MAT,1
SECNUM,1
E,1,2
E,2,3
E,3,4
E,4,5
E,5,6
E,6,7
E,7,8
E,8,9
E,9,10
E,10,11
E,11,12
E,12,13
E,13,14
E,14,15
E,15,16
E,16,17
E,17,18
E,18,19
E,19,20
E,20,21
! ... 20 like lines cut
NSEL,ALL
D,ALL,UZ,0
D,ALL,ROTX,0
D,ALL,ROTY,0
D,1,ALL,0
D,41,ALL,0
*DIM,qsec,ARRAY,1
qsec(1)=45
FCUM,ADD
*GET,emx,ELEM,0,NUM,MAX
*DO,e,1,emx
  n1=NELEM(e,1)
  n2=NELEM(e,2)
  *GET,sc,ELEM,e,ATTR,SECN
  le=DISTND(n1,n2)
  F,n1,FY,-qsec(sc)*le/2
  F,n2,FY,-qsec(sc)*le/2
*ENDDO
FCUM,REPL
FINISH
/SOLU
ANTYPE,STATIC
NLGEOM,ON
AUTOTS,ON
NSUBST,200,20000,50
PIVCHECK,OFF
STABILIZE,REDUCE,ENERGY,1.0E-2
OUTRES,ALL,LAST
SOLVE
FINISH
/POST1
SET,LAST
ALLSEL,ALL
ETABLE,AXF,SMISC,1
*GET,nmx,NODE,0,NUM,MAX
*CFOPEN,caso,txt
*DO,i,1,nmx
  x0=NX(i)
  y0=NY(i)
  xf=x0+UX(i)
  yf=y0+UY(i)
  *VWRITE,i,x0,y0,xf,yf
('N',F8.0,4E20.10)
*ENDDO
*GET,emx,ELEM,0,NUM,MAX
*DO,k,1,emx
  *GET,sc,ELEM,k,ATTR,SECN
  *GET,ax,ELEM,k,ETAB,AXF
  n1=NELEM(k,1)
  n2=NELEM(k,2)
  *VWRITE,k,sc,n1,n2,ax
('E',4F8.0,E20.10)
*ENDDO
*CFCLOS
FINISH
