! Forca concentrada #1 - caso base
! Gerado por casos_2d.py: A = (0, 10), B = (30, 10), trechos (L, q) = [(35, 10)], forcas (fracao do arco, P) = [(0.5, 150)]
! Resultado final gravado em caso.txt (nos e forca axial dos elementos)
/CLEAR,NOSTART
/FILNAME,cabo2d,1
/TITLE,Cabo 2D - casos_2d.py
/PREP7
ET,1,BEAM188
MP,EX,1,2.0E11
MP,PRXY,1,0.3
rsec=0.01
fI=0.01
Asec=3.14159265359*rsec**2
Isec=fI*3.14159265359*rsec**4/4
SECTYPE,1,BEAM,ASEC
SECDATA,Asec,Isec,0,Isec,0,2*Isec
SECTYPE,2,BEAM,ASEC
SECDATA,Asec,Isec,0,Isec,0,2*Isec
N,1,0.0000000000,10.0000000000,0
N,2,0.3004307800,9.6819654586,0
N,3,0.6041098419,9.3670312719,0
N,4,0.9111107383,9.0553345488,0
N,5,1.2215080443,8.7470201257,0
N,6,1.5353772069,8.4422410526,0
N,7,1.8527943109,8.1411590554,0
N,8,2.1738358459,7.8439450581,0
N,9,2.4985783740,7.5507796689,0
N,10,2.8270981810,7.2618537183,0
N,11,3.1594708538,6.9773687919,0
N,12,3.4957707774,6.6975377527,0
N,13,3.8360705606,6.4225852636,0
N,14,4.1804403723,6.1527482895,0
N,15,4.5289472106,5.8882766099,0
N,16,4.8816539698,5.6294331589,0
N,17,5.2386185240,5.3764944723,0
N,18,5.5998925970,5.1297509322,0
N,19,5.9655205314,4.8895069367,0
N,20,6.3355379482,4.6560809683,0
! ... 61 like lines cut
TYPE,1
MAT,1
SECNUM,1
E,1,2
E,2,3
E,3,4
E,4,5
E,5,6
E,6,7
E,7,8
E,8,9
E,9,10
E,10,11
E,11,12
E,12,13
E,13,14
E,14,15
E,15,16
E,16,17
E,17,18
E,18,19
E,19,20
E,20,21
! ... 20 like lines cut
SECNUM,2
E,41,42
E,42,43
E,43,44
E,44,45
E,45,46
E,46,47
E,47,48
E,48,49
E,49,50
E,50,51
E,51,52
E,52,53
E,53,54
E,54,55
E,55,56
E,56,57
E,57,58
E,58,59
E,59,60
E,60,61
! ... 20 like lines cut
NSEL,ALL
D,ALL,UZ,0
D,ALL,ROTX,0
D,ALL,ROTY,0
D,1,ALL,0
D,81,ALL,0
*DIM,qsec,ARRAY,2
qsec(1)=10
qsec(2)=10
FCUM,ADD
*GET,emx,ELEM,0,NUM,MAX
*DO,e,1,emx
  n1=NELEM(e,1)
  n2=NELEM(e,2)
  *GET,sc,ELEM,e,ATTR,SECN
  le=DISTND(n1,n2)
  F,n1,FY,-qsec(sc)*le/2
  F,n2,FY,-qsec(sc)*le/2
*ENDDO
FCUM,REPL
FINISH
/SOLU
ANTYPE,STATIC
NLGEOM,ON
AUTOTS,ON
NSUBST,200,20000,50
PIVCHECK,OFF
STABILIZE,REDUCE,ENERGY,1.0E-2
OUTRES,ALL,LAST
SOLVE
FCUM,ADD
F,41,FY,-150
FCUM,REPL
TIME,2
NSUBST,50,20000,20
LNSRCH,ON
STABILIZE,CONSTANT,ENERGY,1.0E-2
SOLVE
TIME,3
NSUBST,5,1000,2
STABILIZE,OFF
SOLVE
FINISH
/POST1
SET,LAST
ALLSEL,ALL
ETABLE,AXF,SMISC,1
*GET,nmx,NODE,0,NUM,MAX
*CFOPEN,caso,txt
*DO,i,1,nmx
  x0=NX(i)
  y0=NY(i)
  xf=x0+UX(i)
  yf=y0+UY(i)
  *VWRITE,i,x0,y0,xf,yf
('N',F8.0,4E20.10)
*ENDDO
*GET,emx,ELEM,0,NUM,MAX
*DO,k,1,emx
  *GET,sc,ELEM,k,ATTR,SECN
  *GET,ax,ELEM,k,ETAB,AXF
  n1=NELEM(k,1)
  n2=NELEM(k,2)
  *VWRITE,k,sc,n1,n2,ax
('E',4F8.0,E20.10)
*ENDDO
*CFCLOS
FINISH
